
  NIST    08031215123D 1   1.00000  -114.50047
Copyright by the U.S. Sec. Commerce on behalf of U.S.A. All rights reserved.
  4  3  0  0  0  0  0  0  0  0999 V2000
   17.0000   30.0178    0.0000 O    0  0  0  0  0  0  0  0  0  0  0  0
   17.0000   28.8111    0.0000 C    0  0  0  0  0  0  0  0  0  0  0  0
   16.0617   28.2171    0.0000 H    0  0  0  0  0  0  0  0  0  0  0  0
   17.9383   28.2171    0.0000 H    0  0  0  0  0  0  0  0  0  0  0  0
  1  2  2  0
  2  3  1  0
  2  4  1  0
M  END
> <COPYRIGHT>
Collection (C) 2016 copyright by the U.S. Secretary of Commerce on behalf of the United States of America. All rights reserved.

> <DATE>
2012-08-03

> <CAS.NUMBER>
50-00-0

> <METHOD>
B3LYP/6-31G*

> <DIPOLE.MOMENT>
2.1871 debye

> <ELECTRONIC.ENERGY>
-114.500472382 hartree

> <IR.FREQUENCIES>
"Frequency (cm-1)"   "Intensity (km/mol)"
1198.3506  1.4613
1279.9642  12.5687
1562.7133  6.4626
1848.7627  98.5771
2916.4778  55.8001
2968.0495  164.3207

> <ROTATIONAL.CONSTANTS>
284.81374 GHz
38.63488 GHz
34.02007 GHz

> <SOFTWARE>
Gaussian 09, Revision C.01

> <CONTRIBUTOR>
Alexander Yang

$$$$
