
  NIST    07021515223D 1   1.00000  -209.21220
Copyright by the U.S. Sec. Commerce on behalf of U.S.A. All rights reserved.
  9  8  0  0  0  0  0  0  0  0999 V2000
    2.4836    2.5244    0.8336 C    0  0  0  0  0  0  0  0  0  0  0  0
    1.9575    1.1060    0.6560 C    0  0  0  0  0  0  0  0  0  0  0  0
    0.6366    0.9254    0.9696 N    0  0  0  0  0  0  0  0  0  0  0  0
    2.6633    0.1933    0.2556 O    0  0  0  0  0  0  0  0  0  0  0  0
    2.9770    2.8322   -0.0924 H    0  0  0  0  0  0  0  0  0  0  0  0
    1.7102    3.2563    1.0868 H    0  0  0  0  0  0  0  0  0  0  0  0
    3.2421    2.5232    1.6232 H    0  0  0  0  0  0  0  0  0  0  0  0
    0.2672   -0.0145    0.9369 H    0  0  0  0  0  0  0  0  0  0  0  0
    0.0749    1.6474    1.3931 H    0  0  0  0  0  0  0  0  0  0  0  0
  1  2  1  0  0  0  0
  1  5  1  0  0  0  0
  1  6  1  0  0  0  0
  1  7  1  0  0  0  0
  2  3  1  0  0  0  0
  2  4  2  0  0  0  0
  3  8  1  0  0  0  0
  3  9  1  0  0  0  0
M  END
> <COPYRIGHT>
Collection (C) 2016 copyright by the U.S. Secretary of Commerce on behalf of the United States of America. All rights reserved.

> <DATE>
2015-07-02

> <CAS.NUMBER>
60-35-5

> <METHOD>
B3LYP/6-31G*

> <DIPOLE.MOMENT>
3.7087 debye

> <ELECTRONIC.ENERGY>
-209.212203780 hartree

> <IR.FREQUENCIES>
"Frequency (cm-1)"   "Intensity (km/mol)"
34.6205  9.1006
142.6558  236.9557
428.2947  4.4001
519.4887  7.3615
543.2757  14.8325
674.1056  17.4734
845.8492  2.2983
994.5164  7.6968
1069.6742  7.8620
1133.7976  0.3767
1359.8036  129.5230
1426.7349  46.1123
1502.7583  5.6472
1519.4280  7.8465
1646.5187  98.5983
1813.3285  312.0578
3065.7012  8.0599
3137.1199  16.9337
3148.9864  11.3218
3593.8190  28.8243
3722.3199  27.8501

> <ROTATIONAL.CONSTANTS>
10.76903 GHz
9.20747 GHz
5.12263 GHz

> <SOFTWARE>
Gaussian 09, Revision D.01

> <CONTRIBUTOR>
Avi Newman

$$$$
