
  NIST    07011508103D 1   1.00000  -553.18695
Copyright by the U.S. Sec. Commerce on behalf of U.S.A. All rights reserved.
 10  9  0  0  0  0  0  0  0  0999 V2000
    0.8453    1.3312    0.6177 C    0  0  0  0  0  0  0  0  0  0  0  0
    2.4037    2.0580   -0.0309 S    0  0  0  0  0  0  0  0  0  0  0  0
    3.5281    1.0499    1.0166 C    0  0  0  0  0  0  0  0  0  0  0  0
    2.4800    3.4846    0.4624 O    0  0  0  0  0  0  0  0  0  0  0  0
    0.7894    1.4924    1.6984 H    0  0  0  0  0  0  0  0  0  0  0  0
    0.0206    1.8542    0.1275 H    0  0  0  0  0  0  0  0  0  0  0  0
    0.8025    0.2642    0.3781 H    0  0  0  0  0  0  0  0  0  0  0  0
    4.5472    1.3790    0.7997 H    0  0  0  0  0  0  0  0  0  0  0  0
    3.3028    1.2296    2.0721 H    0  0  0  0  0  0  0  0  0  0  0  0
    3.4200   -0.0105    0.7682 H    0  0  0  0  0  0  0  0  0  0  0  0
  1  2  1  0  0  0  0
  1  5  1  0  0  0  0
  1  6  1  0  0  0  0
  1  7  1  0  0  0  0
  2  3  1  0  0  0  0
  2  4  2  0  0  0  0
  3  8  1  0  0  0  0
  3  9  1  0  0  0  0
  3 10  1  0  0  0  0
M  END
> <COPYRIGHT>
Collection (C) 2016 copyright by the U.S. Secretary of Commerce on behalf of the United States of America. All rights reserved.

> <DATE>
2015-07-01

> <CAS.NUMBER>
67-68-5

> <METHOD>
B3LYP/6-31G*

> <DIPOLE.MOMENT>
3.9271 debye

> <ELECTRONIC.ENERGY>
-553.186949705 hartree

> <IR.FREQUENCIES>
"Frequency (cm-1)"   "Intensity (km/mol)"
178.4774  0.0071
228.3069  0.4934
284.5699  0.7606
296.3067  7.1073
362.9689  7.3645
634.9465  10.1099
664.7024  20.4278
905.3129  2.2166
945.1110  5.7734
972.2345  12.5938
1039.6421  23.1804
1102.8250  111.4281
1347.2612  0.7581
1371.0028  6.5385
1470.8077  9.3058
1483.6649  3.2363
1489.2045  0.5362
1507.7795  19.7821
3060.5719  4.6368
3062.9969  7.2374
3156.9151  0.0722
3161.1315  14.3464
3168.6215  3.3092
3169.1182  4.7363

> <ROTATIONAL.CONSTANTS>
6.75223 GHz
6.71608 GHz
4.05369 GHz

> <SOFTWARE>
Gaussian 09, Revision D.01

> <CONTRIBUTOR>
Ashley Zhang

$$$$
