
  NIST    07011508013D 1   1.00000 -1419.27910
Copyright by the U.S. Sec. Commerce on behalf of U.S.A. All rights reserved.
  5  4  0  0  0  0  0  0  0  0999 V2000
   -0.0456    0.0135    1.1878 Cl   0  0  0  0  0  0  0  0  0  0  0  0
    1.4843    0.9351    1.1069 C    0  0  0  0  0  0  0  0  0  0  0  0
    2.8553   -0.0244    1.7368 Cl   0  0  0  0  0  0  0  0  0  0  0  0
    1.3446    2.5029    1.9554 Cl   0  0  0  0  0  0  0  0  0  0  0  0
    1.6850    1.1456    0.0614 H    0  0  0  0  0  0  0  0  0  0  0  0
  1  2  1  0  0  0  0
  2  3  1  0  0  0  0
  2  4  1  0  0  0  0
  2  5  1  0  0  0  0
M  END
> <COPYRIGHT>
Collection (C) 2016 copyright by the U.S. Secretary of Commerce on behalf of the United States of America. All rights reserved.

> <DATE>
2015-07-01

> <CAS.NUMBER>
67-66-3

> <METHOD>
B3LYP/6-31G*

> <DIPOLE.MOMENT>
1.2773 debye

> <ELECTRONIC.ENERGY>
-1419.27910199 hartree

> <IR.FREQUENCIES>
"Frequency (cm-1)"   "Intensity (km/mol)"
260.8136  0.0187
261.1261  0.0180
367.2774  0.4273
667.8741  7.1601
736.2520  188.1509
737.1852  188.0495
1262.5745  30.8393
1262.7211  30.8607
3206.1981  0.0339

> <ROTATIONAL.CONSTANTS>
3.19833 GHz
3.19773 GHz
1.65770 GHz

> <SOFTWARE>
Gaussian 09, Revision D.01

> <CONTRIBUTOR>
Ashley Zhang

$$$$
