
  NIST    07011508153D 1   1.00000  -628.40083
Copyright by the U.S. Sec. Commerce on behalf of U.S.A. All rights reserved.
 11 10  0  0  0  0  0  0  0  0999 V2000
    2.8170    2.2985    0.8166 C    0  0  0  0  0  0  0  0  0  0  0  0
    2.3016    1.4879    2.3505 S    0  0  0  0  0  0  0  0  0  0  0  0
    0.5757    1.9990    2.5408 C    0  0  0  0  0  0  0  0  0  0  0  0
    3.0707    2.0825    3.4533 O    0  0  0  0  0  0  0  0  0  0  0  0
    2.3172    0.0363    2.1183 O    0  0  0  0  0  0  0  0  0  0  0  0
    3.8599    2.0117    0.6617 H    0  0  0  0  0  0  0  0  0  0  0  0
    2.7408    3.3820    0.9294 H    0  0  0  0  0  0  0  0  0  0  0  0
    2.2040    1.9394   -0.0127 H    0  0  0  0  0  0  0  0  0  0  0  0
    0.5219    3.0860    2.6309 H    0  0  0  0  0  0  0  0  0  0  0  0
    0.2237    1.5299    3.4627 H    0  0  0  0  0  0  0  0  0  0  0  0
   -0.0096    1.6395    1.6918 H    0  0  0  0  0  0  0  0  0  0  0  0
  1  2  1  0  0  0  0
  1  6  1  0  0  0  0
  1  7  1  0  0  0  0
  1  8  1  0  0  0  0
  2  3  1  0  0  0  0
  2  4  2  0  0  0  0
  2  5  2  0  0  0  0
  3  9  1  0  0  0  0
  3 10  1  0  0  0  0
  3 11  1  0  0  0  0
M  END
> <COPYRIGHT>
Collection (C) 2016 copyright by the U.S. Secretary of Commerce on behalf of the United States of America. All rights reserved.

> <DATE>
2015-07-01

> <CAS.NUMBER>
67-71-0

> <METHOD>
B3LYP/6-31G*

> <DIPOLE.MOMENT>
4.6060 debye

> <ELECTRONIC.ENERGY>
-628.400830082 hartree

> <IR.FREQUENCIES>
"Frequency (cm-1)"   "Intensity (km/mol)"
186.7724  0.0021
212.8857  0.4685
264.8898  2.4187
280.9020  0.0001
353.6561  0.5825
435.6697  33.3391
474.1814  22.9230
660.9650  12.3441
735.0414  53.6793
956.0010  0.0318
963.8370  61.4278
1011.0015  0.7796
1021.6562  0.0909
1138.1325  162.4704
1328.1575  211.7027
1365.7636  9.4329
1383.7666  11.8395
1478.0931  0.1768
1479.8428  7.8093
1488.8745  2.6924
1493.3762  11.8624
3081.1134  0.0024
3083.9243  1.7011
3182.8278  0.3815
3183.8732  1.1329
3184.5101  0.0091
3188.4901  4.1319

> <ROTATIONAL.CONSTANTS>
4.44530 GHz
4.11643 GHz
4.03196 GHz

> <SOFTWARE>
Gaussian 09, Revision D.01

> <CONTRIBUTOR>
Ashley Zhang

$$$$
