
  NIST    06161418343D 1   1.00000  -248.51224
Copyright by the U.S. Sec. Commerce on behalf of U.S.A. All rights reserved.
 12 11  0  0  0  0  0  0  0  0999 V2000
   17.0036   -0.0447    0.0000 C    0  0  0  0  0  0  0  0  0  0  0  0
   18.1808    0.6484    0.0000 N    0  0  0  0  0  0  0  0  0  0  0  0
   16.8923   -1.2594   -0.0001 O    0  0  0  0  0  0  0  0  0  0  0  0
   18.2174    2.0971    0.0001 C    0  0  0  0  0  0  0  0  0  0  0  0
   19.4462   -0.0649   -0.0001 C    0  0  0  0  0  0  0  0  0  0  0  0
   16.1271    0.6333    0.0000 H    0  0  0  0  0  0  0  0  0  0  0  0
   17.1968    2.4906    0.0001 H    0  0  0  0  0  0  0  0  0  0  0  0
   18.7365    2.4795    0.8894 H    0  0  0  0  0  0  0  0  0  0  0  0
   18.7365    2.4796   -0.8891 H    0  0  0  0  0  0  0  0  0  0  0  0
   19.2298   -1.1339   -0.0000 H    0  0  0  0  0  0  0  0  0  0  0  0
   20.0357    0.1896   -0.8906 H    0  0  0  0  0  0  0  0  0  0  0  0
   20.0359    0.1896    0.8903 H    0  0  0  0  0  0  0  0  0  0  0  0
  1  2  1  0
  1  3  2  0
  2  4  1  0
  2  5  1  0
  1  6  1  0
  4  7  1  0
  4  8  1  0
  4  9  1  0
  5 10  1  0
  5 11  1  0
  5 12  1  0
M  END
> <COPYRIGHT>
Collection (C) 2016 copyright by the U.S. Secretary of Commerce on behalf of the United States of America. All rights reserved.

> <DATE>
2014-06-16

> <CAS.NUMBER>
68-12-2

> <METHOD>
B3LYP/6-31G*

> <DIPOLE.MOMENT>
3.8309 debye

> <ELECTRONIC.ENERGY>
-248.512242116 hartree

> <IR.FREQUENCIES>
"Frequency (cm-1)"   "Intensity (km/mol)"
118.2325  0.0613
176.8316  0.1957
231.6262  1.6762
323.0604  11.7564
337.6586  16.8924
393.2298  1.5660
662.6699  7.5828
881.5138  1.6054
1019.8204  0.5205
1092.5252  2.9289
1107.3406  115.8960
1141.5667  0.0370
1189.4986  2.1905
1291.2930  38.8871
1431.1782  85.0922
1451.2898  13.2596
1457.2720  8.3889
1491.6427  7.7876
1504.9054  3.8328
1527.3572  14.0345
1532.3458  14.9639
1565.3816  14.5834
1803.2600  396.5290
2963.9520  99.2483
3026.4051  46.5170
3036.5530  58.6628
3073.7643  50.3438
3082.8597  26.1633
3133.7295  18.3498
3176.7527  1.0937

> <ROTATIONAL.CONSTANTS>
8.91211 GHz
4.16567 GHz
2.94437 GHz

> <SOFTWARE>
Gaussian 09, Revision D.01

> <CONTRIBUTOR>
Ethan Ho

$$$$
