
  NIST    07011510083D 1   1.00000  -233.66112
Copyright by the U.S. Sec. Commerce on behalf of U.S.A. All rights reserved.
 15 14  0  0  0  0  0  0  0  0999 V2000
    3.0151    2.0890    2.3786 C    0  0  0  0  0  0  0  0  0  0  0  0
    2.3482    2.7535    1.1640 C    0  0  0  0  0  0  0  0  0  0  0  0
    0.9002    2.3182    0.9176 C    0  0  0  0  0  0  0  0  0  0  0  0
    3.2360    0.5798    2.2268 C    0  0  0  0  0  0  0  0  0  0  0  0
    0.0481    2.5412    2.0382 O    0  0  0  0  0  0  0  0  0  0  0  0
    3.9815    2.5784    2.5584 H    0  0  0  0  0  0  0  0  0  0  0  0
    2.3981    2.2796    3.2651 H    0  0  0  0  0  0  0  0  0  0  0  0
    2.9316    2.5482    0.2541 H    0  0  0  0  0  0  0  0  0  0  0  0
    2.3663    3.8469    1.2943 H    0  0  0  0  0  0  0  0  0  0  0  0
    0.5096    2.8232    0.0190 H    0  0  0  0  0  0  0  0  0  0  0  0
    0.8459    1.2414    0.7277 H    0  0  0  0  0  0  0  0  0  0  0  0
    2.2884    0.0376    2.1343 H    0  0  0  0  0  0  0  0  0  0  0  0
    3.7608    0.1717    3.0981 H    0  0  0  0  0  0  0  0  0  0  0  0
    3.8399    0.3528    1.3388 H    0  0  0  0  0  0  0  0  0  0  0  0
    0.0457    3.4951    2.2151 H    0  0  0  0  0  0  0  0  0  0  0  0
  1  2  1  0  0  0  0
  1  4  1  0  0  0  0
  1  6  1  0  0  0  0
  1  7  1  0  0  0  0
  2  3  1  0  0  0  0
  2  8  1  0  0  0  0
  2  9  1  0  0  0  0
  3  5  1  0  0  0  0
  3 10  1  0  0  0  0
  3 11  1  0  0  0  0
  4 12  1  0  0  0  0
  4 13  1  0  0  0  0
  4 14  1  0  0  0  0
  5 15  1  0  0  0  0
M  END
> <COPYRIGHT>
Collection (C) 2016 copyright by the U.S. Secretary of Commerce on behalf of the United States of America. All rights reserved.

> <DATE>
2015-07-01

> <CAS.NUMBER>
71-36-3

> <METHOD>
B3LYP/6-31G*

> <DIPOLE.MOMENT>
1.5973 debye

> <ELECTRONIC.ENERGY>
-233.661115618 hartree

> <IR.FREQUENCIES>
"Frequency (cm-1)"   "Intensity (km/mol)"
54.7647  1.1012
164.7832  0.6294
245.6363  8.3923
268.9592  0.3777
334.1341  128.2950
394.7705  0.3346
521.8579  16.3920
745.7978  4.5813
815.6106  1.5710
868.4254  8.1949
957.3666  1.7299
978.9249  16.2292
1039.0905  19.2024
1094.0493  65.7829
1114.0284  2.8036
1146.7054  8.5096
1214.6022  13.8372
1284.7412  1.6504
1340.4903  0.7010
1383.5592  4.4362
1398.2136  12.7883
1416.9343  2.3418
1438.8320  38.2011
1442.9294  5.7487
1507.9916  1.2818
1517.3498  1.0575
1529.5236  3.1806
1534.4649  5.2786
1545.1782  4.1046
2993.4465  54.2376
3012.6436  63.7221
3042.3936  19.3236
3043.5398  18.3155
3049.5007  48.6820
3081.7499  10.1807
3103.4315  47.6307
3108.9162  52.5939
3118.2992  47.0853
3733.8618  8.5433

> <ROTATIONAL.CONSTANTS>
8.35850 GHz
2.87499 GHz
2.66825 GHz

> <SOFTWARE>
Gaussian 09, Revision D.01

> <CONTRIBUTOR>
Avi Newman

$$$$
