
  NIST    06301516253D 1   1.00000  -500.10854
Copyright by the U.S. Sec. Commerce on behalf of U.S.A. All rights reserved.
  5  4  0  0  0  0  0  0  0  0999 V2000
    0.0013    1.1923    1.6223 H    0  0  0  0  0  0  0  0  0  0  0  0
    0.6472    0.9873    0.7684 C    0  0  0  0  0  0  0  0  0  0  0  0
    0.5106    1.7459   -0.0025 H    0  0  0  0  0  0  0  0  0  0  0  0
    0.4422   -0.0049    0.3661 H    0  0  0  0  0  0  0  0  0  0  0  0
    2.3625    1.0370    1.3232 Cl   0  0  0  0  0  0  0  0  0  0  0  0
  1  2  1  0  0  0  0
  2  3  1  0  0  0  0
  2  4  1  0  0  0  0
  2  5  1  0  0  0  0
M  END
> <COPYRIGHT>
Collection (C) 2016 copyright by the U.S. Secretary of Commerce on behalf of the United States of America. All rights reserved.

> <DATE>
2015-06-30

> <CAS.NUMBER>
74-87-3

> <METHOD>
B3LYP/6-31G*

> <DIPOLE.MOMENT>
2.0834 debye

> <ELECTRONIC.ENERGY>
-500.108536003 hartree

> <IR.FREQUENCIES>
"Frequency (cm-1)"   "Intensity (km/mol)"
720.6680  29.1564
1044.7925  4.2267
1045.0761  4.2247
1413.6436  19.1121
1510.3252  6.0650
1510.3684  6.0661
3096.3962  23.0291
3195.8883  7.4288
3196.3491  7.4307

> <ROTATIONAL.CONSTANTS>
156.42106 GHz
13.03317 GHz
13.03316 GHz

> <SOFTWARE>
Gaussian 09, Revision D.01

> <CONTRIBUTOR>
Avi Newman

$$$$
