
  NIST    07011508023D 1   1.00000  -437.47627
Copyright by the U.S. Sec. Commerce on behalf of U.S.A. All rights reserved.
  5  4  0  0  0  0  0  0  0  0999 V2000
    1.3060    0.0068    0.2454 F    0  0  0  0  0  0  0  0  0  0  0  0
    1.0931    1.2665    0.6132 C    0  0  0  0  0  0  0  0  0  0  0  0
    0.9190    1.3205    1.9299 F    0  0  0  0  0  0  0  0  0  0  0  0
    0.0059    1.7286    0.0035 F    0  0  0  0  0  0  0  0  0  0  0  0
    2.1413    2.0105    0.2744 F    0  0  0  0  0  0  0  0  0  0  0  0
  1  2  1  0  0  0  0
  2  3  1  0  0  0  0
  2  4  1  0  0  0  0
  2  5  1  0  0  0  0
M  END
> <COPYRIGHT>
Collection (C) 2016 copyright by the U.S. Secretary of Commerce on behalf of the United States of America. All rights reserved.

> <DATE>
2015-07-01

> <CAS.NUMBER>
75-73-0

> <METHOD>
B3LYP/6-31G*

> <DIPOLE.MOMENT>
0.0008 debye

> <ELECTRONIC.ENERGY>
-437.476269813 hartree

> <IR.FREQUENCIES>
"Frequency (cm-1)"   "Intensity (km/mol)"
423.4646  0.0001
424.6902  0.0001
616.2698  4.5019
616.7657  4.5136
617.4439  4.5044
906.3480  0.0004
1305.6004  387.1812
1306.0020  387.2542
1306.1381  387.1640

> <ROTATIONAL.CONSTANTS>
5.64569 GHz
5.64502 GHz
5.64367 GHz

> <SOFTWARE>
Gaussian 09, Revision D.01

> <CONTRIBUTOR>
Ashley Zhang

$$$$
